<?xml version="1.0" encoding="UTF-8"?>

<!-- generated on 10/25/20 18:43:25 by Eclipse SUMO netedit Version 1.7.0
<configuration xmlns:xsi="http://www.w3.org/2001/XMLSchema-instance" xsi:noNamespaceSchemaLocation="http://sumo.dlr.de/xsd/netconvertConfiguration.xsd">

    <input>
        <sumo-net-file value="C:\Users\hoang\Desktop\sumo\final\custom.net.xml"/>
    </input>

    <output>
        <output-file value="C:\Users\hoang\Desktop\sumo\final\custom.net.xml"/>
    </output>

    <processing>
        <geometry.min-radius.fix.railways value="false"/>
        <geometry.max-grade.fix value="false"/>
        <offset.disable-normalization value="true"/>
        <lefthand value="false"/>
    </processing>

    <junctions>
        <no-turnarounds value="true"/>
        <junctions.corner-detail value="5"/>
        <junctions.limit-turn-speed value="5.5"/>
        <rectangular-lane-cut value="false"/>
    </junctions>

    <pedestrian>
        <walkingareas value="false"/>
    </pedestrian>

    <netedit>
        <additional-files value="C:\Users\hoang\Desktop\sumo\final\custom.add.xml"/>
    </netedit>

    <report>
        <aggregate-warnings value="5"/>
    </report>

</configuration>
-->

<additionals>
    <rerouter id="rerouter_0" edges="road8">
        <interval end="1e9">
           <destProbReroute id="road7"/>
        </interval>
    </rerouter>
    <rerouter id="rerouter_1" edges="road08">
        <interval end="1e9">
           <destProbReroute id="road01"/>
        </interval>
    </rerouter>
</additionals>
